Version 4.1
SHEET 1 13144 19396
WIRE 2144 -992 2144 -1008
WIRE 2288 -992 2144 -992
WIRE 2144 -976 2144 -992
WIRE 2288 -928 2288 -992
WIRE 2288 -928 2144 -928
WIRE 2096 -896 2032 -896
WIRE 2144 -832 2144 -880
WIRE 2288 -784 2288 -928
WIRE 2288 -784 2144 -784
WIRE 1056 -752 1056 -816
WIRE 1056 -752 928 -752
WIRE 1072 -752 1056 -752
WIRE 1152 -752 1072 -752
WIRE 4352 -736 4352 -768
WIRE 4432 -736 4352 -736
WIRE 928 -720 928 -752
WIRE 1152 -720 1152 -752
WIRE 4352 -720 4352 -736
WIRE 1280 -704 1200 -704
WIRE 400 -688 320 -688
WIRE 320 -672 320 -688
WIRE 1072 -672 1072 -752
WIRE 1072 -672 928 -672
WIRE 1152 -672 1072 -672
WIRE 2144 -672 2144 -736
WIRE 4432 -672 4432 -736
WIRE 4432 -672 4352 -672
WIRE 880 -640 800 -640
WIRE 4304 -640 4224 -640
WIRE 400 -624 400 -688
WIRE 400 -624 320 -624
WIRE 2288 -624 2288 -784
WIRE 2288 -624 2144 -624
WIRE 272 -592 192 -592
WIRE 928 -592 928 -624
WIRE 1056 -592 928 -592
WIRE 1152 -592 1152 -624
WIRE 1152 -592 1056 -592
WIRE 4112 -576 4096 -576
WIRE 4224 -576 4224 -640
WIRE 4224 -576 4112 -576
WIRE 4352 -576 4352 -624
WIRE 4544 -576 4352 -576
WIRE 4608 -576 4544 -576
WIRE 1056 -544 1056 -592
WIRE 1280 -544 1056 -544
WIRE 192 -528 192 -592
WIRE 192 -528 112 -528
WIRE 320 -528 320 -576
WIRE 576 -528 320 -528
WIRE 4352 -528 4352 -576
WIRE 1056 -512 1056 -544
WIRE 2144 -512 2144 -576
WIRE 2512 -512 2144 -512
WIRE 320 -480 320 -528
WIRE 4464 -480 4352 -480
WIRE 1184 -464 1056 -464
WIRE 4224 -448 4224 -576
WIRE 4304 -448 4224 -448
WIRE 432 -432 320 -432
WIRE 1008 -432 928 -432
WIRE 2144 -416 2144 -512
WIRE 2144 -416 1840 -416
WIRE 2160 -416 2144 -416
WIRE 2480 -416 2160 -416
WIRE 4352 -416 4352 -432
WIRE 4464 -416 4464 -480
WIRE 4464 -416 4352 -416
WIRE 192 -400 192 -528
WIRE 272 -400 192 -400
WIRE 4352 -384 4352 -416
WIRE 320 -368 320 -384
WIRE 432 -368 432 -432
WIRE 432 -368 320 -368
WIRE 1840 -368 1840 -416
WIRE 2160 -368 2160 -416
WIRE 2480 -368 2480 -416
WIRE 1056 -352 1056 -416
WIRE 320 -336 320 -368
WIRE 2000 -320 1840 -320
WIRE 2304 -320 2160 -320
WIRE 2624 -320 2480 -320
WIRE 1184 -304 1184 -464
WIRE 1184 -304 1056 -304
WIRE 1792 -288 1776 -288
WIRE 2112 -288 2080 -288
WIRE 2432 -288 2400 -288
WIRE 1008 -272 928 -272
WIRE 1056 -240 1056 -256
WIRE 1184 -240 1184 -304
WIRE 1184 -240 1056 -240
WIRE 4336 -224 4336 -256
WIRE 4416 -224 4336 -224
WIRE 4336 -208 4336 -224
WIRE 1056 -192 1056 -240
WIRE 1840 -192 1840 -272
WIRE 2000 -192 2000 -320
WIRE 2000 -192 1840 -192
WIRE 2160 -192 2160 -272
WIRE 2160 -192 2000 -192
WIRE 2304 -192 2304 -320
WIRE 2304 -192 2160 -192
WIRE 2480 -192 2480 -272
WIRE 2480 -192 2304 -192
WIRE 2624 -192 2624 -320
WIRE 2624 -192 2480 -192
WIRE 4416 -160 4416 -224
WIRE 4416 -160 4336 -160
WIRE 2160 -128 2160 -192
WIRE 4288 -128 4208 -128
WIRE 4096 -64 4080 -64
WIRE 4208 -64 4208 -128
WIRE 4208 -64 4096 -64
WIRE 4336 -64 4336 -112
WIRE 4528 -64 4336 -64
WIRE 4592 -64 4528 -64
WIRE 4336 -16 4336 -64
WIRE 4448 32 4336 32
WIRE 4208 64 4208 -64
WIRE 4288 64 4208 64
WIRE 4336 96 4336 80
WIRE 4448 96 4448 32
WIRE 4448 96 4336 96
WIRE 4336 128 4336 96
WIRE 3424 800 3424 736
WIRE 3424 800 3296 800
WIRE 3440 800 3424 800
WIRE 3568 800 3440 800
WIRE 944 816 944 752
WIRE 944 816 816 816
WIRE 960 816 944 816
WIRE 1088 816 960 816
WIRE 3296 832 3296 800
WIRE 3568 832 3568 800
WIRE 816 848 816 816
WIRE 1088 848 1088 816
WIRE 3648 848 3616 848
WIRE 3664 848 3648 848
WIRE 1168 864 1136 864
WIRE 1184 864 1168 864
WIRE 3440 880 3440 800
WIRE 3440 880 3296 880
WIRE 3568 880 3440 880
WIRE 960 896 960 816
WIRE 960 896 816 896
WIRE 1088 896 960 896
WIRE 10944 896 10944 832
WIRE 10944 896 10816 896
WIRE 10960 896 10944 896
WIRE 11088 896 10960 896
WIRE 3248 912 3088 912
WIRE 8464 912 8464 848
WIRE 8464 912 8336 912
WIRE 8480 912 8464 912
WIRE 8608 912 8480 912
WIRE 768 928 608 928
WIRE 10816 928 10816 896
WIRE 11088 928 11088 896
WIRE 8336 944 8336 912
WIRE 8608 944 8608 912
WIRE 11168 944 11136 944
WIRE 11184 944 11168 944
WIRE 3296 960 3296 928
WIRE 3424 960 3296 960
WIRE 3568 960 3568 928
WIRE 3568 960 3424 960
WIRE 8704 960 8656 960
WIRE 816 976 816 944
WIRE 944 976 816 976
WIRE 1088 976 1088 944
WIRE 1088 976 944 976
WIRE 10960 976 10960 896
WIRE 10960 976 10816 976
WIRE 11088 976 10960 976
WIRE 8480 992 8480 912
WIRE 8480 992 8336 992
WIRE 8608 992 8480 992
WIRE 3424 1008 3424 960
WIRE 3904 1008 3424 1008
WIRE 10768 1008 10608 1008
WIRE 944 1024 944 976
WIRE 1424 1024 944 1024
WIRE 8288 1024 8128 1024
WIRE 3424 1040 3424 1008
WIRE 944 1056 944 1024
WIRE 10816 1056 10816 1024
WIRE 10944 1056 10816 1056
WIRE 11088 1056 11088 1024
WIRE 11088 1056 10944 1056
WIRE 8336 1072 8336 1040
WIRE 8464 1072 8336 1072
WIRE 8608 1072 8608 1040
WIRE 8608 1072 8464 1072
WIRE 2624 1088 2624 1024
WIRE 2624 1088 2496 1088
WIRE 2640 1088 2624 1088
WIRE 2768 1088 2640 1088
WIRE 3552 1088 3424 1088
WIRE 144 1104 144 1040
WIRE 144 1104 16 1104
WIRE 160 1104 144 1104
WIRE 288 1104 160 1104
WIRE 1072 1104 944 1104
WIRE 4160 1104 4160 1040
WIRE 4160 1104 4032 1104
WIRE 4176 1104 4160 1104
WIRE 4304 1104 4176 1104
WIRE 10944 1104 10944 1056
WIRE 11424 1104 10944 1104
WIRE 1680 1120 1680 1056
WIRE 1680 1120 1552 1120
WIRE 1696 1120 1680 1120
WIRE 1824 1120 1696 1120
WIRE 2496 1120 2496 1088
WIRE 2768 1120 2768 1088
WIRE 3376 1120 2848 1120
WIRE 8464 1120 8464 1072
WIRE 8944 1120 8464 1120
WIRE 16 1136 16 1104
WIRE 288 1136 288 1104
WIRE 896 1136 848 1136
WIRE 2848 1136 2848 1120
WIRE 2848 1136 2816 1136
WIRE 4032 1136 4032 1104
WIRE 4304 1136 4304 1104
WIRE 10944 1136 10944 1104
WIRE 368 1152 336 1152
WIRE 1552 1152 1552 1120
WIRE 1824 1152 1824 1120
WIRE 4480 1152 4352 1152
WIRE 8464 1152 8464 1120
WIRE 2000 1168 1872 1168
WIRE 2640 1168 2640 1088
WIRE 2640 1168 2496 1168
WIRE 2768 1168 2640 1168
WIRE 160 1184 160 1104
WIRE 160 1184 16 1184
WIRE 288 1184 160 1184
WIRE 4176 1184 4176 1104
WIRE 4176 1184 4032 1184
WIRE 4304 1184 4176 1184
WIRE 10144 1184 10144 1120
WIRE 10144 1184 10016 1184
WIRE 10160 1184 10144 1184
WIRE 10288 1184 10160 1184
WIRE 11072 1184 10944 1184
WIRE 1696 1200 1696 1120
WIRE 1696 1200 1552 1200
WIRE 1824 1200 1696 1200
WIRE 2448 1200 2368 1200
WIRE 3424 1200 3424 1136
WIRE 7664 1200 7664 1136
WIRE 7664 1200 7536 1200
WIRE 7680 1200 7664 1200
WIRE 7808 1200 7680 1200
WIRE 8592 1200 8464 1200
WIRE 11680 1200 11680 1136
WIRE 11680 1200 11552 1200
WIRE 11696 1200 11680 1200
WIRE 11824 1200 11696 1200
WIRE -80 1216 -112 1216
WIRE -32 1216 -80 1216
WIRE 944 1216 944 1152
WIRE 3904 1216 3904 1008
WIRE 3984 1216 3904 1216
WIRE 9200 1216 9200 1152
WIRE 9200 1216 9072 1216
WIRE 9216 1216 9200 1216
WIRE 9344 1216 9216 1216
WIRE 10016 1216 10016 1184
WIRE 10288 1216 10288 1184
WIRE 10896 1216 10368 1216
WIRE 1424 1232 1424 1024
WIRE 1504 1232 1424 1232
WIRE 7536 1232 7536 1200
WIRE 7808 1232 7808 1200
WIRE 8416 1232 8368 1232
WIRE 10352 1232 10336 1232
WIRE 10368 1232 10368 1216
WIRE 10368 1232 10352 1232
WIRE 11552 1232 11552 1200
WIRE 11824 1232 11824 1200
WIRE 2496 1248 2496 1216
WIRE 2624 1248 2496 1248
WIRE 2768 1248 2768 1216
WIRE 2768 1248 2624 1248
WIRE 3552 1248 3552 1088
WIRE 3552 1248 3424 1248
WIRE 7888 1248 7856 1248
WIRE 9072 1248 9072 1216
WIRE 9344 1248 9344 1216
WIRE 12000 1248 11872 1248
WIRE 16 1264 16 1232
WIRE 144 1264 16 1264
WIRE 288 1264 288 1232
WIRE 288 1264 144 1264
WIRE 1072 1264 1072 1104
WIRE 1072 1264 944 1264
WIRE 4032 1264 4032 1232
WIRE 4160 1264 4032 1264
WIRE 4304 1264 4304 1232
WIRE 4304 1264 4160 1264
WIRE 9520 1264 9392 1264
WIRE 10160 1264 10160 1184
WIRE 10160 1264 10016 1264
WIRE 10288 1264 10160 1264
WIRE 1552 1280 1552 1248
WIRE 1680 1280 1552 1280
WIRE 1824 1280 1824 1248
WIRE 1824 1280 1680 1280
WIRE 3376 1280 3328 1280
WIRE 7680 1280 7680 1200
WIRE 7680 1280 7536 1280
WIRE 7808 1280 7680 1280
WIRE 11696 1280 11696 1200
WIRE 11696 1280 11552 1280
WIRE 11824 1280 11696 1280
WIRE 896 1296 848 1296
WIRE 9216 1296 9216 1216
WIRE 9216 1296 9072 1296
WIRE 9344 1296 9216 1296
WIRE 9968 1296 9888 1296
WIRE 10944 1296 10944 1232
WIRE 2624 1312 2624 1248
WIRE 3088 1312 3088 912
WIRE 3088 1312 2624 1312
WIRE 3328 1312 3328 1280
WIRE 3328 1312 3088 1312
WIRE 3424 1312 3424 1296
WIRE 3552 1312 3552 1248
WIRE 3552 1312 3424 1312
WIRE 4160 1312 4160 1264
WIRE 4896 1312 4160 1312
WIRE 5344 1312 4896 1312
WIRE 5392 1312 5344 1312
WIRE 7440 1312 7408 1312
WIRE 7488 1312 7440 1312
WIRE 8464 1312 8464 1248
WIRE 11424 1312 11424 1104
WIRE 11504 1312 11424 1312
WIRE 144 1328 144 1264
WIRE 448 1328 144 1328
WIRE 608 1328 608 928
WIRE 608 1328 448 1328
WIRE 848 1328 848 1296
WIRE 848 1328 608 1328
WIRE 944 1328 944 1312
WIRE 1072 1328 1072 1264
WIRE 1072 1328 944 1328
WIRE 1680 1328 1680 1280
WIRE 2144 1328 1680 1328
WIRE 2368 1328 2368 1200
WIRE 2368 1328 2144 1328
WIRE 2624 1328 2624 1312
WIRE 8944 1328 8944 1120
WIRE 9024 1328 8944 1328
WIRE 144 1344 144 1328
WIRE 4160 1344 4160 1312
WIRE 10016 1344 10016 1312
WIRE 10144 1344 10016 1344
WIRE 10288 1344 10288 1312
WIRE 10288 1344 10144 1344
WIRE 11072 1344 11072 1184
WIRE 11072 1344 10944 1344
WIRE 1680 1360 1680 1328
WIRE 3424 1360 3424 1312
WIRE 7536 1360 7536 1328
WIRE 7664 1360 7536 1360
WIRE 7808 1360 7808 1328
WIRE 7808 1360 7664 1360
WIRE 8592 1360 8592 1200
WIRE 8592 1360 8464 1360
WIRE 11552 1360 11552 1328
WIRE 11680 1360 11552 1360
WIRE 11824 1360 11824 1328
WIRE 11824 1360 11680 1360
WIRE 944 1376 944 1328
WIRE 2752 1376 2624 1376
WIRE 9072 1376 9072 1344
WIRE 9200 1376 9072 1376
WIRE 9344 1376 9344 1344
WIRE 9344 1376 9200 1376
WIRE 10896 1376 10848 1376
WIRE 272 1392 144 1392
WIRE 4288 1392 4160 1392
WIRE 8416 1392 8368 1392
WIRE 1808 1408 1680 1408
WIRE 2368 1408 2368 1328
WIRE 2576 1408 2368 1408
WIRE 10144 1408 10144 1344
WIRE 10608 1408 10608 1008
WIRE 10608 1408 10144 1408
WIRE 10848 1408 10848 1376
WIRE 10848 1408 10608 1408
WIRE 10944 1408 10944 1392
WIRE 11072 1408 11072 1344
WIRE 11072 1408 10944 1408
WIRE 11680 1408 11680 1360
WIRE 12416 1408 11680 1408
WIRE 12912 1408 12416 1408
WIRE -80 1424 -80 1216
WIRE 96 1424 -80 1424
WIRE 3904 1424 3904 1216
WIRE 4112 1424 3904 1424
WIRE 4896 1424 4896 1312
WIRE 7664 1424 7664 1360
WIRE 7968 1424 7664 1424
WIRE 8128 1424 8128 1024
WIRE 8128 1424 7968 1424
WIRE 8368 1424 8368 1392
WIRE 8368 1424 8128 1424
WIRE 8464 1424 8464 1408
WIRE 8592 1424 8592 1360
WIRE 8592 1424 8464 1424
WIRE 9200 1424 9200 1376
WIRE 9664 1424 9200 1424
WIRE 9888 1424 9888 1296
WIRE 9888 1424 9664 1424
WIRE 10144 1424 10144 1408
WIRE 1424 1440 1424 1232
WIRE 1632 1440 1424 1440
WIRE 7664 1440 7664 1424
WIRE 11680 1440 11680 1408
WIRE 9200 1456 9200 1424
WIRE 10944 1456 10944 1408
WIRE 8464 1472 8464 1424
WIRE 10272 1472 10144 1472
WIRE 2624 1488 2624 1424
WIRE 7792 1488 7664 1488
WIRE 11808 1488 11680 1488
WIRE 144 1504 144 1440
WIRE 4160 1504 4160 1440
WIRE 9328 1504 9200 1504
WIRE 9888 1504 9888 1424
WIRE 10096 1504 9888 1504
WIRE 1680 1520 1680 1456
WIRE 7440 1520 7440 1312
WIRE 7616 1520 7440 1520
WIRE 11424 1520 11424 1312
WIRE 11632 1520 11424 1520
WIRE 12416 1520 12416 1408
WIRE 2752 1536 2752 1376
WIRE 2752 1536 2624 1536
WIRE 8944 1536 8944 1328
WIRE 9152 1536 8944 1536
WIRE 272 1552 272 1392
WIRE 272 1552 144 1552
WIRE 4288 1552 4288 1392
WIRE 4288 1552 4160 1552
WIRE 1808 1568 1808 1408
WIRE 1808 1568 1680 1568
WIRE 2576 1568 2496 1568
WIRE 96 1584 16 1584
WIRE 4112 1584 4032 1584
WIRE 10144 1584 10144 1520
WIRE 1632 1600 1552 1600
WIRE 2624 1600 2624 1584
WIRE 2752 1600 2752 1536
WIRE 2752 1600 2624 1600
WIRE 3424 1600 3424 1536
WIRE 3424 1600 3296 1600
WIRE 3440 1600 3424 1600
WIRE 3568 1600 3440 1600
WIRE 7664 1600 7664 1536
WIRE 11680 1600 11680 1536
WIRE 144 1616 144 1600
WIRE 272 1616 272 1552
WIRE 272 1616 144 1616
WIRE 944 1616 944 1552
WIRE 944 1616 816 1616
WIRE 960 1616 944 1616
WIRE 1088 1616 960 1616
WIRE 4160 1616 4160 1600
WIRE 4288 1616 4288 1552
WIRE 4288 1616 4160 1616
WIRE 9200 1616 9200 1552
WIRE 1680 1632 1680 1616
WIRE 1808 1632 1808 1568
WIRE 1808 1632 1680 1632
WIRE 3296 1632 3296 1600
WIRE 3568 1632 3568 1600
WIRE 10272 1632 10272 1472
WIRE 10272 1632 10144 1632
WIRE 816 1648 816 1616
WIRE 1088 1648 1088 1616
WIRE 2624 1648 2624 1600
WIRE 3648 1648 3616 1648
WIRE 3664 1648 3648 1648
WIRE 7792 1648 7792 1488
WIRE 7792 1648 7664 1648
WIRE 11808 1648 11808 1488
WIRE 11808 1648 11680 1648
WIRE 144 1664 144 1616
WIRE 1168 1664 1136 1664
WIRE 1184 1664 1168 1664
WIRE 4160 1664 4160 1616
WIRE 9328 1664 9328 1504
WIRE 9328 1664 9200 1664
WIRE 10096 1664 10016 1664
WIRE 1680 1680 1680 1632
WIRE 3440 1680 3440 1600
WIRE 3440 1680 3296 1680
WIRE 3568 1680 3440 1680
WIRE 4896 1680 4896 1488
WIRE 7616 1680 7536 1680
WIRE 11632 1680 11552 1680
WIRE 960 1696 960 1616
WIRE 960 1696 816 1696
WIRE 1088 1696 960 1696
WIRE 9152 1696 9072 1696
WIRE 10144 1696 10144 1680
WIRE 10272 1696 10272 1632
WIRE 10272 1696 10144 1696
WIRE 10944 1696 10944 1632
WIRE 10944 1696 10816 1696
WIRE 10960 1696 10944 1696
WIRE 11088 1696 10960 1696
WIRE 3088 1712 3088 1312
WIRE 3248 1712 3088 1712
WIRE 7664 1712 7664 1696
WIRE 7792 1712 7792 1648
WIRE 7792 1712 7664 1712
WIRE 8464 1712 8464 1648
WIRE 8464 1712 8336 1712
WIRE 8480 1712 8464 1712
WIRE 8608 1712 8480 1712
WIRE 11680 1712 11680 1696
WIRE 11808 1712 11808 1648
WIRE 11808 1712 11680 1712
WIRE 608 1728 608 1328
WIRE 768 1728 608 1728
WIRE 9200 1728 9200 1712
WIRE 9328 1728 9328 1664
WIRE 9328 1728 9200 1728
WIRE 10816 1728 10816 1696
WIRE 11088 1728 11088 1696
WIRE 8336 1744 8336 1712
WIRE 8608 1744 8608 1712
WIRE 10144 1744 10144 1696
WIRE 11184 1744 11136 1744
WIRE 3296 1760 3296 1728
WIRE 3424 1760 3296 1760
WIRE 3568 1760 3568 1728
WIRE 3568 1760 3424 1760
WIRE 7664 1760 7664 1712
WIRE 8704 1760 8656 1760
WIRE 11680 1760 11680 1712
WIRE 816 1776 816 1744
WIRE 944 1776 816 1776
WIRE 1088 1776 1088 1744
WIRE 1088 1776 944 1776
WIRE 9200 1776 9200 1728
WIRE 10960 1776 10960 1696
WIRE 10960 1776 10816 1776
WIRE 11088 1776 10960 1776
WIRE 12416 1776 12416 1584
WIRE 8480 1792 8480 1712
WIRE 8480 1792 8336 1792
WIRE 8608 1792 8480 1792
WIRE 3424 1808 3424 1760
WIRE 4032 1808 4032 1584
WIRE 4032 1808 3424 1808
WIRE 4480 1808 4480 1152
WIRE 4480 1808 4032 1808
WIRE 10608 1808 10608 1408
WIRE 10768 1808 10608 1808
WIRE 944 1824 944 1776
WIRE 1552 1824 1552 1600
WIRE 1552 1824 944 1824
WIRE 2000 1824 2000 1168
WIRE 2000 1824 1552 1824
WIRE 8128 1824 8128 1424
WIRE 8288 1824 8128 1824
WIRE 3424 1840 3424 1808
WIRE 944 1856 944 1824
WIRE 10816 1856 10816 1824
WIRE 10944 1856 10816 1856
WIRE 11088 1856 11088 1824
WIRE 11088 1856 10944 1856
WIRE 8336 1872 8336 1840
WIRE 8464 1872 8336 1872
WIRE 8608 1872 8608 1840
WIRE 8608 1872 8464 1872
WIRE 3552 1888 3424 1888
WIRE 1072 1904 944 1904
WIRE 10944 1904 10944 1856
WIRE 11552 1904 11552 1680
WIRE 11552 1904 10944 1904
WIRE 12000 1904 12000 1248
WIRE 12000 1904 11552 1904
WIRE 3088 1920 3088 1712
WIRE 3376 1920 3088 1920
WIRE 8464 1920 8464 1872
WIRE 9072 1920 9072 1696
WIRE 9072 1920 8464 1920
WIRE 9520 1920 9520 1264
WIRE 9520 1920 9072 1920
WIRE 608 1936 608 1728
WIRE 896 1936 608 1936
WIRE 10944 1936 10944 1904
WIRE 8464 1952 8464 1920
WIRE 2144 1984 2144 1328
WIRE 9664 1984 9664 1424
WIRE 11072 1984 10944 1984
WIRE 3424 2000 3424 1936
WIRE 8592 2000 8464 2000
WIRE 944 2016 944 1952
WIRE 10608 2016 10608 1808
WIRE 10896 2016 10608 2016
WIRE 8128 2032 8128 1824
WIRE 8416 2032 8128 2032
WIRE 3552 2048 3552 1888
WIRE 3552 2048 3424 2048
WIRE 1072 2064 1072 1904
WIRE 1072 2064 944 2064
WIRE 3376 2080 3248 2080
WIRE 896 2096 768 2096
WIRE 10944 2096 10944 2032
WIRE 3424 2112 3424 2096
WIRE 3552 2112 3552 2048
WIRE 3552 2112 3424 2112
WIRE 8464 2112 8464 2048
WIRE 944 2128 944 2112
WIRE 1072 2128 1072 2064
WIRE 1072 2128 944 2128
WIRE 11072 2144 11072 1984
WIRE 11072 2144 10944 2144
WIRE 3424 2160 3424 2112
WIRE 8592 2160 8592 2000
WIRE 8592 2160 8464 2160
WIRE 944 2176 944 2128
WIRE 10896 2176 10768 2176
WIRE 8416 2192 8288 2192
WIRE 10944 2208 10944 2192
WIRE 11072 2208 11072 2144
WIRE 11072 2208 10944 2208
WIRE 8464 2224 8464 2208
WIRE 8592 2224 8592 2160
WIRE 8592 2224 8464 2224
WIRE 2144 2240 2144 1984
WIRE 3248 2240 3248 2080
WIRE 3248 2240 2144 2240
WIRE 4176 2240 3248 2240
WIRE 10944 2256 10944 2208
WIRE 8464 2272 8464 2224
WIRE 9664 2336 9664 1984
WIRE 10768 2336 10768 2176
WIRE 10768 2336 9664 2336
WIRE 11696 2336 10768 2336
WIRE 448 2368 448 1328
WIRE 576 2368 448 2368
WIRE 3504 2368 576 2368
WIRE 5056 2368 3504 2368
WIRE 7968 2464 7968 1424
WIRE 8224 2464 7968 2464
WIRE 11024 2464 8224 2464
WIRE 12576 2464 11024 2464
WIRE 3760 2512 3760 2448
WIRE 3760 2512 3632 2512
WIRE 3776 2512 3760 2512
WIRE 3856 2512 3776 2512
WIRE 4432 2512 4432 2448
WIRE 4432 2512 4304 2512
WIRE 4448 2512 4432 2512
WIRE 4528 2512 4448 2512
WIRE 3632 2544 3632 2512
WIRE 3856 2544 3856 2512
WIRE 4304 2544 4304 2512
WIRE 4528 2544 4528 2512
WIRE 3984 2560 3904 2560
WIRE 4640 2560 4576 2560
WIRE 4656 2560 4640 2560
WIRE 3776 2592 3776 2512
WIRE 3776 2592 3632 2592
WIRE 3856 2592 3776 2592
WIRE 4448 2592 4448 2512
WIRE 4448 2592 4304 2592
WIRE 4528 2592 4448 2592
WIRE 11280 2608 11280 2544
WIRE 11280 2608 11152 2608
WIRE 11296 2608 11280 2608
WIRE 11376 2608 11296 2608
WIRE 11952 2608 11952 2544
WIRE 11952 2608 11824 2608
WIRE 11968 2608 11952 2608
WIRE 12048 2608 11968 2608
WIRE 3504 2624 3504 2368
WIRE 3584 2624 3504 2624
WIRE 4176 2624 4176 2240
WIRE 4256 2624 4176 2624
WIRE 5344 2624 5264 2624
WIRE 5264 2640 5264 2624
WIRE 11152 2640 11152 2608
WIRE 11376 2640 11376 2608
WIRE 11824 2640 11824 2608
WIRE 12048 2640 12048 2608
WIRE 11504 2656 11424 2656
WIRE 12176 2656 12096 2656
WIRE 3632 2672 3632 2640
WIRE 3760 2672 3632 2672
WIRE 3856 2672 3856 2640
WIRE 3856 2672 3760 2672
WIRE 4304 2672 4304 2640
WIRE 4432 2672 4304 2672
WIRE 4528 2672 4528 2640
WIRE 4528 2672 4432 2672
WIRE 5344 2688 5344 2624
WIRE 5344 2688 5264 2688
WIRE 11296 2688 11296 2608
WIRE 11296 2688 11152 2688
WIRE 11376 2688 11296 2688
WIRE 11968 2688 11968 2608
WIRE 11968 2688 11824 2688
WIRE 12048 2688 11968 2688
WIRE 3216 2720 2944 2720
WIRE 3312 2720 3216 2720
WIRE 3760 2720 3760 2672
WIRE 3760 2720 3312 2720
WIRE 3984 2720 3984 2560
WIRE 4432 2720 4432 2672
WIRE 4432 2720 3984 2720
WIRE 5216 2720 5136 2720
WIRE 11024 2720 11024 2464
WIRE 11104 2720 11024 2720
WIRE 11696 2720 11696 2336
WIRE 11776 2720 11696 2720
WIRE 12864 2720 12784 2720
WIRE 12784 2736 12784 2720
WIRE 3760 2752 3760 2720
WIRE 4432 2752 4432 2720
WIRE 11152 2768 11152 2736
WIRE 11280 2768 11152 2768
WIRE 11376 2768 11376 2736
WIRE 11376 2768 11280 2768
WIRE 11824 2768 11824 2736
WIRE 11952 2768 11824 2768
WIRE 12048 2768 12048 2736
WIRE 12048 2768 11952 2768
WIRE 5056 2784 5056 2368
WIRE 5136 2784 5136 2720
WIRE 5136 2784 5056 2784
WIRE 5264 2784 5264 2736
WIRE 5488 2784 5264 2784
WIRE 5520 2784 5488 2784
WIRE 12864 2784 12864 2720
WIRE 12864 2784 12784 2784
WIRE 3312 2800 3312 2720
WIRE 3888 2800 3760 2800
WIRE 4560 2800 4432 2800
WIRE 10608 2816 10464 2816
WIRE 10832 2816 10608 2816
WIRE 11280 2816 11280 2768
WIRE 11280 2816 10832 2816
WIRE 11504 2816 11504 2656
WIRE 11952 2816 11952 2768
WIRE 11952 2816 11504 2816
WIRE 12736 2816 12656 2816
WIRE 3504 2832 3504 2624
WIRE 3712 2832 3504 2832
WIRE 4176 2832 4176 2624
WIRE 4384 2832 4176 2832
WIRE 5264 2832 5264 2784
WIRE 11280 2848 11280 2816
WIRE 11952 2848 11952 2816
WIRE 5376 2880 5264 2880
WIRE 12576 2880 12576 2464
WIRE 12656 2880 12656 2816
WIRE 12656 2880 12576 2880
WIRE 12784 2880 12784 2832
WIRE 13024 2880 12784 2880
WIRE 13040 2880 13024 2880
WIRE 10832 2896 10832 2816
WIRE 11408 2896 11280 2896
WIRE 12080 2896 11952 2896
WIRE 3760 2912 3760 2848
WIRE 4432 2912 4432 2848
WIRE 5136 2912 5136 2784
WIRE 5216 2912 5136 2912
WIRE 11024 2928 11024 2720
WIRE 11232 2928 11024 2928
WIRE 11696 2928 11696 2720
WIRE 11904 2928 11696 2928
WIRE 12784 2928 12784 2880
WIRE 5264 2944 5264 2928
WIRE 5376 2944 5376 2880
WIRE 5376 2944 5264 2944
WIRE 3888 2960 3888 2800
WIRE 3888 2960 3760 2960
WIRE 4560 2960 4560 2800
WIRE 4560 2960 4432 2960
WIRE 5264 2976 5264 2944
WIRE 12896 2976 12784 2976
WIRE 3712 2992 3632 2992
WIRE 4384 2992 4304 2992
WIRE 3312 3008 3312 2864
WIRE 11280 3008 11280 2944
WIRE 11952 3008 11952 2944
WIRE 12656 3008 12656 2880
WIRE 12736 3008 12656 3008
WIRE 3760 3024 3760 3008
WIRE 3888 3024 3888 2960
WIRE 3888 3024 3760 3024
WIRE 4432 3024 4432 3008
WIRE 4560 3024 4560 2960
WIRE 4560 3024 4432 3024
WIRE 12784 3040 12784 3024
WIRE 12896 3040 12896 2976
WIRE 12896 3040 12784 3040
WIRE 11408 3056 11408 2896
WIRE 11408 3056 11280 3056
WIRE 12080 3056 12080 2896
WIRE 12080 3056 11952 3056
WIRE 3760 3072 3760 3024
WIRE 4432 3072 4432 3024
WIRE 12784 3072 12784 3040
WIRE 11232 3088 11152 3088
WIRE 11904 3088 11824 3088
WIRE 10832 3104 10832 2960
WIRE 3632 3120 3632 2992
WIRE 3984 3120 3984 2720
WIRE 3984 3120 3632 3120
WIRE 11280 3120 11280 3104
WIRE 11408 3120 11408 3056
WIRE 11408 3120 11280 3120
WIRE 11952 3120 11952 3104
WIRE 12080 3120 12080 3056
WIRE 12080 3120 11952 3120
WIRE 11280 3168 11280 3120
WIRE 11952 3168 11952 3120
WIRE 11152 3216 11152 3088
WIRE 11504 3216 11504 2816
WIRE 11504 3216 11152 3216
WIRE 2944 3504 2944 2720
WIRE 3760 3504 2944 3504
WIRE 1280 3520 800 3520
WIRE 3520 3536 3520 3472
WIRE 3520 3536 3392 3536
WIRE 3536 3536 3520 3536
WIRE 3664 3536 3536 3536
WIRE 1040 3552 1040 3488
WIRE 1040 3552 912 3552
WIRE 1056 3552 1040 3552
WIRE 1184 3552 1056 3552
WIRE 3392 3568 3392 3536
WIRE 3664 3568 3664 3536
WIRE 912 3584 912 3552
WIRE 1184 3584 1184 3552
WIRE 3760 3584 3760 3504
WIRE 3760 3584 3712 3584
WIRE 1280 3600 1280 3520
WIRE 1280 3600 1232 3600
WIRE 10464 3600 10464 2816
WIRE 11280 3600 10464 3600
WIRE 3536 3616 3536 3536
WIRE 3536 3616 3392 3616
WIRE 3664 3616 3536 3616
WIRE 8800 3616 8320 3616
WIRE 1056 3632 1056 3552
WIRE 1056 3632 912 3632
WIRE 1184 3632 1056 3632
WIRE 11040 3632 11040 3568
WIRE 11040 3632 10912 3632
WIRE 11056 3632 11040 3632
WIRE 11184 3632 11056 3632
WIRE 3344 3648 3184 3648
WIRE 8560 3648 8560 3584
WIRE 8560 3648 8432 3648
WIRE 8576 3648 8560 3648
WIRE 8704 3648 8576 3648
WIRE 864 3664 704 3664
WIRE 10912 3664 10912 3632
WIRE 11184 3664 11184 3632
WIRE 8432 3680 8432 3648
WIRE 8704 3680 8704 3648
WIRE 11280 3680 11280 3600
WIRE 11280 3680 11232 3680
WIRE 3392 3696 3392 3664
WIRE 3520 3696 3392 3696
WIRE 3664 3696 3664 3664
WIRE 3664 3696 3520 3696
WIRE 8800 3696 8800 3616
WIRE 8800 3696 8752 3696
WIRE 800 3712 800 3520
WIRE 800 3712 16 3712
WIRE 912 3712 912 3680
WIRE 1040 3712 912 3712
WIRE 1184 3712 1184 3680
WIRE 1184 3712 1040 3712
WIRE 11056 3712 11056 3632
WIRE 11056 3712 10912 3712
WIRE 11184 3712 11056 3712
WIRE 8576 3728 8576 3648
WIRE 8576 3728 8432 3728
WIRE 8704 3728 8576 3728
WIRE 3520 3744 3520 3696
WIRE 4000 3744 3520 3744
WIRE 10864 3744 10704 3744
WIRE 1040 3760 1040 3712
WIRE 1520 3760 1040 3760
WIRE 8384 3760 8224 3760
WIRE 3520 3776 3520 3744
WIRE 1040 3792 1040 3760
WIRE 10912 3792 10912 3760
WIRE 11040 3792 10912 3792
WIRE 11184 3792 11184 3760
WIRE 11184 3792 11040 3792
WIRE 8320 3808 8320 3616
WIRE 8320 3808 7536 3808
WIRE 8432 3808 8432 3776
WIRE 8560 3808 8432 3808
WIRE 8704 3808 8704 3776
WIRE 8704 3808 8560 3808
WIRE 2720 3824 2720 3760
WIRE 2720 3824 2592 3824
WIRE 2736 3824 2720 3824
WIRE 2864 3824 2736 3824
WIRE 3648 3824 3520 3824
WIRE 240 3840 240 3664
WIRE 240 3840 112 3840
WIRE 256 3840 240 3840
WIRE 384 3840 256 3840
WIRE 1168 3840 1040 3840
WIRE 4256 3840 4256 3776
WIRE 4256 3840 4128 3840
WIRE 4272 3840 4256 3840
WIRE 4400 3840 4272 3840
WIRE 11040 3840 11040 3792
WIRE 11520 3840 11040 3840
WIRE 1776 3856 1776 3792
WIRE 1776 3856 1648 3856
WIRE 1792 3856 1776 3856
WIRE 1920 3856 1792 3856
WIRE 2592 3856 2592 3824
WIRE 2864 3856 2864 3824
WIRE 2944 3856 2944 3504
WIRE 3472 3856 2944 3856
WIRE 8560 3856 8560 3808
WIRE 9040 3856 8560 3856
WIRE 112 3872 112 3840
WIRE 384 3872 384 3840
WIRE 800 3872 800 3712
WIRE 992 3872 800 3872
WIRE 2944 3872 2944 3856
WIRE 2944 3872 2912 3872
WIRE 4128 3872 4128 3840
WIRE 4400 3872 4400 3840
WIRE 11040 3872 11040 3840
WIRE 464 3888 432 3888
WIRE 1648 3888 1648 3856
WIRE 1920 3888 1920 3856
WIRE 4576 3888 4448 3888
WIRE 8560 3888 8560 3856
WIRE 2096 3904 1968 3904
WIRE 2736 3904 2736 3824
WIRE 2736 3904 2592 3904
WIRE 2864 3904 2736 3904
WIRE 256 3920 256 3840
WIRE 256 3920 112 3920
WIRE 384 3920 256 3920
WIRE 4272 3920 4272 3840
WIRE 4272 3920 4128 3920
WIRE 4400 3920 4272 3920
WIRE 10240 3920 10240 3856
WIRE 10240 3920 10112 3920
WIRE 10256 3920 10240 3920
WIRE 10384 3920 10256 3920
WIRE 11168 3920 11040 3920
WIRE 1792 3936 1792 3856
WIRE 1792 3936 1648 3936
WIRE 1920 3936 1792 3936
WIRE 2544 3936 2464 3936
WIRE 3520 3936 3520 3872
WIRE 7760 3936 7760 3760
WIRE 7760 3936 7632 3936
WIRE 7776 3936 7760 3936
WIRE 7904 3936 7776 3936
WIRE 8688 3936 8560 3936
WIRE 11776 3936 11776 3872
WIRE 11776 3936 11648 3936
WIRE 11792 3936 11776 3936
WIRE 11920 3936 11792 3936
WIRE 16 3952 16 3712
WIRE 16 3952 -16 3952
WIRE 64 3952 16 3952
WIRE 1040 3952 1040 3888
WIRE 4000 3952 4000 3744
WIRE 4080 3952 4000 3952
WIRE 9296 3952 9296 3888
WIRE 9296 3952 9168 3952
WIRE 9312 3952 9296 3952
WIRE 9440 3952 9312 3952
WIRE 10112 3952 10112 3920
WIRE 10384 3952 10384 3920
WIRE 10464 3952 10464 3600
WIRE 10992 3952 10464 3952
WIRE 1520 3968 1520 3760
WIRE 1600 3968 1520 3968
WIRE 7632 3968 7632 3936
WIRE 7904 3968 7904 3936
WIRE 8320 3968 8320 3808
WIRE 8512 3968 8320 3968
WIRE 10464 3968 10464 3952
WIRE 10464 3968 10432 3968
WIRE 11648 3968 11648 3936
WIRE 11920 3968 11920 3936
WIRE 2592 3984 2592 3952
WIRE 2720 3984 2592 3984
WIRE 2864 3984 2864 3952
WIRE 2864 3984 2720 3984
WIRE 3648 3984 3648 3824
WIRE 3648 3984 3520 3984
WIRE 7984 3984 7952 3984
WIRE 9168 3984 9168 3952
WIRE 9440 3984 9440 3952
WIRE 12096 3984 11968 3984
WIRE 112 4000 112 3968
WIRE 240 4000 112 4000
WIRE 384 4000 384 3968
WIRE 384 4000 240 4000
WIRE 1168 4000 1168 3840
WIRE 1168 4000 1040 4000
WIRE 4128 4000 4128 3968
WIRE 4256 4000 4128 4000
WIRE 4400 4000 4400 3968
WIRE 4400 4000 4256 4000
WIRE 9616 4000 9488 4000
WIRE 10256 4000 10256 3920
WIRE 10256 4000 10112 4000
WIRE 10384 4000 10256 4000
WIRE 1648 4016 1648 3984
WIRE 1776 4016 1648 4016
WIRE 1920 4016 1920 3984
WIRE 1920 4016 1776 4016
WIRE 3472 4016 3424 4016
WIRE 7776 4016 7776 3936
WIRE 7776 4016 7632 4016
WIRE 7904 4016 7776 4016
WIRE 11792 4016 11792 3936
WIRE 11792 4016 11648 4016
WIRE 11920 4016 11792 4016
WIRE 992 4032 944 4032
WIRE 9312 4032 9312 3952
WIRE 9312 4032 9168 4032
WIRE 9440 4032 9312 4032
WIRE 10064 4032 9984 4032
WIRE 11040 4032 11040 3968
WIRE 2720 4048 2720 3984
WIRE 3184 4048 3184 3648
WIRE 3184 4048 2720 4048
WIRE 3424 4048 3424 4016
WIRE 3424 4048 3184 4048
WIRE 3520 4048 3520 4032
WIRE 3648 4048 3648 3984
WIRE 3648 4048 3520 4048
WIRE 4256 4048 4256 4000
WIRE 4992 4048 4256 4048
WIRE 5440 4048 4992 4048
WIRE 5488 4048 5440 4048
WIRE 7536 4048 7536 3808
WIRE 7536 4048 7504 4048
WIRE 7584 4048 7536 4048
WIRE 8560 4048 8560 3984
WIRE 11520 4048 11520 3840
WIRE 11600 4048 11520 4048
WIRE 240 4064 240 4000
WIRE 560 4064 240 4064
WIRE 704 4064 704 3664
WIRE 704 4064 560 4064
WIRE 944 4064 944 4032
WIRE 944 4064 704 4064
WIRE 1040 4064 1040 4048
WIRE 1168 4064 1168 4000
WIRE 1168 4064 1040 4064
WIRE 1776 4064 1776 4016
WIRE 2240 4064 1776 4064
WIRE 2464 4064 2464 3936
WIRE 2464 4064 2240 4064
WIRE 2720 4064 2720 4048
WIRE 9040 4064 9040 3856
WIRE 9120 4064 9040 4064
WIRE 240 4080 240 4064
WIRE 4256 4080 4256 4048
WIRE 10112 4080 10112 4048
WIRE 10240 4080 10112 4080
WIRE 10384 4080 10384 4048
WIRE 10384 4080 10240 4080
WIRE 11168 4080 11168 3920
WIRE 11168 4080 11040 4080
WIRE 1776 4096 1776 4064
WIRE 3520 4096 3520 4048
WIRE 7632 4096 7632 4064
WIRE 7760 4096 7632 4096
WIRE 7904 4096 7904 4064
WIRE 7904 4096 7760 4096
WIRE 8688 4096 8688 3936
WIRE 8688 4096 8560 4096
WIRE 11648 4096 11648 4064
WIRE 11776 4096 11648 4096
WIRE 11920 4096 11920 4064
WIRE 11920 4096 11776 4096
WIRE 1040 4112 1040 4064
WIRE 2848 4112 2720 4112
WIRE 9168 4112 9168 4080
WIRE 9296 4112 9168 4112
WIRE 9440 4112 9440 4080
WIRE 9440 4112 9296 4112
WIRE 10992 4112 10944 4112
WIRE 368 4128 240 4128
WIRE 4384 4128 4256 4128
WIRE 8512 4128 8464 4128
WIRE 1904 4144 1776 4144
WIRE 2464 4144 2464 4064
WIRE 2672 4144 2464 4144
WIRE 10240 4144 10240 4080
WIRE 10704 4144 10704 3744
WIRE 10704 4144 10240 4144
WIRE 10944 4144 10944 4112
WIRE 10944 4144 10704 4144
WIRE 11040 4144 11040 4128
WIRE 11168 4144 11168 4080
WIRE 11168 4144 11040 4144
WIRE 11776 4144 11776 4096
WIRE 12512 4144 11776 4144
WIRE 13008 4144 12512 4144
WIRE 16 4160 16 3952
WIRE 192 4160 16 4160
WIRE 4000 4160 4000 3952
WIRE 4208 4160 4000 4160
WIRE 4992 4160 4992 4048
WIRE 7760 4160 7760 4096
WIRE 8080 4160 7760 4160
WIRE 8224 4160 8224 3760
WIRE 8224 4160 8080 4160
WIRE 8464 4160 8464 4128
WIRE 8464 4160 8224 4160
WIRE 8560 4160 8560 4144
WIRE 8688 4160 8688 4096
WIRE 8688 4160 8560 4160
WIRE 9296 4160 9296 4112
WIRE 9760 4160 9296 4160
WIRE 9984 4160 9984 4032
WIRE 9984 4160 9760 4160
WIRE 10240 4160 10240 4144
WIRE 1520 4176 1520 3968
WIRE 1728 4176 1520 4176
WIRE 7760 4176 7760 4160
WIRE 11776 4176 11776 4144
WIRE 9296 4192 9296 4160
WIRE 11040 4192 11040 4144
WIRE 8560 4208 8560 4160
WIRE 10368 4208 10240 4208
WIRE 2720 4224 2720 4160
WIRE 7888 4224 7760 4224
WIRE 11904 4224 11776 4224
WIRE 240 4240 240 4176
WIRE 4256 4240 4256 4176
WIRE 9424 4240 9296 4240
WIRE 9984 4240 9984 4160
WIRE 10192 4240 9984 4240
WIRE 1776 4256 1776 4192
WIRE 7536 4256 7536 4048
WIRE 7712 4256 7536 4256
WIRE 11520 4256 11520 4048
WIRE 11728 4256 11520 4256
WIRE 12512 4256 12512 4144
WIRE 2848 4272 2848 4112
WIRE 2848 4272 2720 4272
WIRE 9040 4272 9040 4064
WIRE 9248 4272 9040 4272
WIRE 368 4288 368 4128
WIRE 368 4288 240 4288
WIRE 4384 4288 4384 4128
WIRE 4384 4288 4256 4288
WIRE 1904 4304 1904 4144
WIRE 1904 4304 1776 4304
WIRE 2672 4304 2656 4304
WIRE 160 4320 112 4320
WIRE 192 4320 160 4320
WIRE 4208 4320 4128 4320
WIRE 10240 4320 10240 4256
WIRE 1728 4336 1648 4336
WIRE 2720 4336 2720 4320
WIRE 2848 4336 2848 4272
WIRE 2848 4336 2720 4336
WIRE 3520 4336 3520 4272
WIRE 3520 4336 3392 4336
WIRE 3536 4336 3520 4336
WIRE 3664 4336 3536 4336
WIRE 7760 4336 7760 4272
WIRE 11776 4336 11776 4272
WIRE 240 4352 240 4336
WIRE 368 4352 368 4288
WIRE 368 4352 240 4352